14202443
  -OEChem-06012113203D

  9  8  0     1  0  0  0  0  0999 V2000
   -1.7306   -0.1302   -0.1005 Br  0  0  0  0  0  0  0  0  0  0  0  0
    0.6664    1.2369   -0.1520 O   0  0  0  0  0  0  0  0  0  0  0  0
    0.1428    0.0384    0.3922 C   0  0  2  0  0  0  0  0  0  0  0  0
    0.9214   -1.1451   -0.1396 C   0  0  0  0  0  0  0  0  0  0  0  0
    0.1859    0.0865    1.4839 H   0  0  0  0  0  0  0  0  0  0  0  0
    0.5402   -2.0920    0.2558 H   0  0  0  0  0  0  0  0  0  0  0  0
    0.8833   -1.1880   -1.2342 H   0  0  0  0  0  0  0  0  0  0  0  0
    1.9790   -1.0570    0.1324 H   0  0  0  0  0  0  0  0  0  0  0  0
    0.0400    1.9447    0.0756 H   0  0  0  0  0  0  0  0  0  0  0  0
  1  3  1  0  0  0  0
  2  3  1  0  0  0  0
  2  9  1  0  0  0  0
  3  4  1  0  0  0  0
  3  5  1  0  0  0  0
  4  6  1  0  0  0  0
  4  7  1  0  0  0  0
  4  8  1  0  0  0  0
M  END
> <PUBCHEM_COMPOUND_CID>
14202443

> <PUBCHEM_CONFORMER_RMSD>
0.4

> <PUBCHEM_CONFORMER_DIVERSEORDER>
1
2

> <PUBCHEM_MMFF94_PARTIAL_CHARGES>
4
1 -0.23
2 -0.68
3 0.51
9 0.4

> <PUBCHEM_EFFECTIVE_ROTOR_COUNT>
0

> <PUBCHEM_PHARMACOPHORE_FEATURES>
4
1 1 hydrophobe
1 2 acceptor
1 2 donor
3 1 3 4 hydrophobe

> <PUBCHEM_HEAVY_ATOM_COUNT>
4

> <PUBCHEM_ATOM_DEF_STEREO_COUNT>
0

> <PUBCHEM_ATOM_UDEF_STEREO_COUNT>
1

> <PUBCHEM_BOND_DEF_STEREO_COUNT>
0

> <PUBCHEM_BOND_UDEF_STEREO_COUNT>
0

> <PUBCHEM_ISOTOPIC_ATOM_COUNT>
0

> <PUBCHEM_COMPONENT_COUNT>
1

> <PUBCHEM_CACTVS_TAUTO_COUNT>
1

> <PUBCHEM_CONFORMER_ID>
00D8B64B00000001

> <PUBCHEM_MMFF94_ENERGY>
0.9316

> <PUBCHEM_FEATURE_SELFOVERLAP>
21.238

> <PUBCHEM_SHAPE_FINGERPRINT>
139733 1 8717956782557707667
20096714 4 18193838364969835941
21015797 1 8646776568628245098
5943 1 17484279329052643778

> <PUBCHEM_SHAPE_MULTIPOLES>
82.39
1.87
1.22
0.68
0.93
0.17
-0.02
-0.38
0.11
-0.43
0.1
0.05
-0.02
0

> <PUBCHEM_SHAPE_SELFOVERLAP>
124.729

> <PUBCHEM_SHAPE_VOLUME>
62.1

> <PUBCHEM_COORDINATE_TYPE>
2
5
10

$$$$
